tests/data/ucte/synthetic_all_blocks.uct
##C 2007.05.01
PowerIO synthetic UCTE-DEF case: every block, both regulation kinds,
a busbar coupler, an equivalent element, and a cross border node.
##N
##ZFR
FGEN__11 GEN 400      0 3 410.00 0.00000 0.00000 -300.00 -50.000 -100.00 -400.00 150.000 -150.00 5.000 300.000 10000.0 10.0000 N
FLOAD_11 LOAD 400     0 0        250.000 80.0000 0.00000 0.00000
FLOAD_12 LOAD 400 B   0 0        0.00000 0.00000 0.00000 0.00000
FMV___21 MV 220       0 2 225.00 100.000 30.0000 -80.000 0.00000 -20.000 -120.00 60.0000 -60.000                               H
##ZBE
BIMP__11 IMPORT 400   0 0        120.000 40.0000 0.00000 0.00000
##ZXX
XFRBE_11 XNODE FR-BE  1 0        0.00000 0.00000 0.00000 0.00000
##L
FGEN__11 FLOAD_11 1 0 2.5000 25.000 300.0000   1200 GEN-LOAD 1
FGEN__11 FLOAD_11 2 8 2.5000 25.000 300.0000   1200 GEN-LOAD 2
FLOAD_11 FLOAD_12 1 2 0.0000 0.0000 0.000000   3000 COUPLER
FLOAD_11 XFRBE_11 1 0 1.0000 12.000 150.0000   1000 TIE FR SIDE
XFRBE_11 BIMP__11 1 0 1.0000 12.000 150.0000   1000 TIE BE SIDE
FLOAD_12 FGEN__11 1 1 0.0000 0.0200 0.000000    500 EQUIV LOW X
##T
FMV___21 FLOAD_11 1 0 231.0 400.0 300.0 0.5000 20.000 -3.00000 1.0000    500 TRAFO RTC
FLOAD_12 FMV___21 1 0 400.0 220.0 400.0 0.2000 15.000 0.000000 0.0000    600 TRAFO PST
##R
FMV___21 FLOAD_11 1 1.500 12   3 405.0
FLOAD_12 FMV___21 1                    2.000 90.00 10  -2 -120. SYMM
##TT
FMV___21 FLOAD_11 1     3  0.5000 20.000 0.00000 0.0000 0.000
##E
FR BE  150.0   FR to BE
